12
A Structure
C -1.344765 0.054152 0.000000
C 0.050395 0.054152 0.000000
C 0.747933 1.261903 0.000000
C 0.050279 2.470412 -0.001199
C -1.344546 2.470334 -0.001678
C -2.042147 1.262128 -0.000682
H -1.894524 -0.898165 0.000450
H 0.599903 -0.898361 0.001315
H 1.847613 1.261983 0.000634
H 0.600479 3.422555 -0.001258
H -1.894668 3.422615 -0.002631
H -3.141751 1.262311 -0.000862
